&RUN
iexpnr     =  001
lwarmstart =  .false.
startfile  =  'initd001h00mx000y000.001'
runtime    =  100
trestart   =  100
irandom    =  43
randthl    =  0.1
randqt     =  0
nsv        =  0
ladaptive  = .true.
nprocx     = 2
nprocy     = 2
/

&DOMAIN
itot       =  128
jtot       =  128
kmax       =  128

xsize      =  200.
ysize      =  200.

xlat       =  73
xlon       =  0.
xday       =  0.
xtime      =  0.
/

&PHYSICS
z0         =  0.1
ps         =  100000.00
thls       =  263.5
ltimedep   =  .true.
lmoist     =  .false.
iradiation =  0
lcoriol    =  .true.
/

&NAMSURFACE
z0         =  0.1
ps         =  100000.00
isurf      =  2
/

&DYNAMICS
llsadv     =  .false.
lqlnr      =  .false.
cu         =  0.
cv         =  0.

iadv_mom    =  2
iadv_tke    =  2
iadv_thl    =  2
iadv_qt     =  2
iadv_sv     =  2
/

&NAMSUBGRID
  lmason = .false.
  cf = 2.5
/
&NAMBUDGET 
lbudget     = .true.
dtav        = 60.
timeav      = 300.
/

&NAMCHECKSIM
tcheck      = 6
/
&NAMSAMPLING
dtav        = 60
timeav      = 300.
lsampcl     = .false.
lsampco     = .false.
lsampup     = .false.
lsampbuup   = .false.
lsampcldup  = .false.
/
&NAMTIMESTAT
ltimestat   = .true.
dtav        = 60
/
&NAMCROSSSECTION
lcross      = .false.
dtav        = 60
/
&NAMGENSTAT
lstat       = .true.
dtav        = 60
timeav      = 300
/
&NAMFIELDDUMP
lfielddump  = .false.
dtav        = 60
ldiracc     = .true.
/
&NAMSTATTEND
dtav = 60
ltend = .true.
timeav = 300.
/
