&RUN
iexpnr     =  001
runtime    =  1200
dtmax      =  1
ladaptive  =  .true.
irandom    =  43
randthl    =  0.2
randqt     =  1e-5
nsv        = 0
nprocx     = 2
nprocy     = 2
/
&DOMAIN
itot       =  256
jtot       =  256
kmax       =  192
xsize      =  256.
ysize      =  256.
xyrot      =  30
xlat       =  40.
xlon       =  110
/
&PHYSICS
ltimedep   =  .true.
ps         =  101609.00
thls       =  293.18
lmoist     =  .false.
lcoriol    =  .true.
iradiation = 0
z0         = 0.1
/
&NAMSURFACE
wtsurf     = 0.0 
wqsurf     = 0e-5
isurf      = 2
lmostlocal = .false.
lwsv_sfc_flux_hetero = .true.
/
&DYNAMICS
lqlnr      =  .true.
cu         =  0
cv         =  0.
iadv_mom    =  2
iadv_tke    =  7
iadv_thl    =  7
iadv_qt     =  7
iadv_sv     =  7 7 7 7
ibas_prf    = 2
/
&NAMSUBGRID
lsmagorinsky = .true.
lmason = .true.
ldelta = .true.
/
&NAMCHECKSIM
tcheck      = 60
/
&NAMTIMESTAT
ltimestat   = .false.
dtav        = 60
/
&NAMGENSTAT
lstat       = .true.
dtav        = 7200
timeav      = 7200
/
&NAMGENSTATLITE
lstat       = .true.
timeav      = 2
/
&NAMBUDGET
lbudget     = .true.
dtav        = 600
timeav      = 3600
/
&
&NAMSAMPLING
dtav        = 600
timeav      = 3600
lsampibm = .true.
/
&NAMIBM
lapply_ibm = .true.
lreadfile_obstacles = .true.
lwallheat = .true.
thlibm = 293.18
thlwall = 293.18
thlroof = 293.18
qtibm   = 0.000
z0m_wall = 0.1
/
&NAMFIELDDUMP
 DTAV        =  2
 LFIELDDUMP  = .true.
 LSAVETIMEAVG = .true.
 LDIRACC     = .true.
 LBINARY     = .false.
 KLOW        = 1
 KHIGH       = 60
 lekh        = .true.
 lqt         = .false.        
 lql         = .false.        
 lbuoy       = .false.      
 lsv         = .false.   
/
&NAMCROSSSECTION
lcross  = .true.
dtav    = 3600 
crossheight = 1 2 3 4 5
lbinary = .false.
/
&NUDGEBOUNDARY
lnudgeboundary = .true.
nudgedepthgr = 6
/
